1000

O  1.25 1.25 1.25
O  3.75 1.25 1.25
O  6.25 1.25 1.25
O  8.75 1.25 1.25
O 11.25 1.25 1.25
O 13.75 1.25 1.25
O 16.25 1.25 1.25
O 18.75 1.25 1.25
O 21.25 1.25 1.25
O 23.75 1.25 1.25
O  1.25 3.75 1.25
O  3.75 3.75 1.25
O  6.25 3.75 1.25
O  8.75 3.75 1.25
O 11.25 3.75 1.25
O 13.75 3.75 1.25
O 16.25 3.75 1.25
O 18.75 3.75 1.25
O 21.25 3.75 1.25
O 23.75 3.75 1.25
O  1.25 6.25 1.25
O  3.75 6.25 1.25
O  6.25 6.25 1.25
O  8.75 6.25 1.25
O 11.25 6.25 1.25
O 13.75 6.25 1.25
O 16.25 6.25 1.25
O 18.75 6.25 1.25
O 21.25 6.25 1.25
O 23.75 6.25 1.25
O  1.25 8.75 1.25
O  3.75 8.75 1.25
O  6.25 8.75 1.25
O  8.75 8.75 1.25
O 11.25 8.75 1.25
O 13.75 8.75 1.25
O 16.25 8.75 1.25
O 18.75 8.75 1.25
O 21.25 8.75 1.25
O 23.75 8.75 1.25
O  1.25 11.25 1.25
O  3.75 11.25 1.25
O  6.25 11.25 1.25
O  8.75 11.25 1.25
O 11.25 11.25 1.25
O 13.75 11.25 1.25
O 16.25 11.25 1.25
O 18.75 11.25 1.25
O 21.25 11.25 1.25
O 23.75 11.25 1.25
O  1.25 13.75 1.25
O  3.75 13.75 1.25
O  6.25 13.75 1.25
O  8.75 13.75 1.25
O 11.25 13.75 1.25
O 13.75 13.75 1.25
O 16.25 13.75 1.25
O 18.75 13.75 1.25
O 21.25 13.75 1.25
O 23.75 13.75 1.25
O  1.25 16.25 1.25
O  3.75 16.25 1.25
O  6.25 16.25 1.25
O  8.75 16.25 1.25
O 11.25 16.25 1.25
O 13.75 16.25 1.25
O 16.25 16.25 1.25
O 18.75 16.25 1.25
O 21.25 16.25 1.25
O 23.75 16.25 1.25
O  1.25 18.75 1.25
O  3.75 18.75 1.25
O  6.25 18.75 1.25
O  8.75 18.75 1.25
O 11.25 18.75 1.25
O 13.75 18.75 1.25
O 16.25 18.75 1.25
O 18.75 18.75 1.25
O 21.25 18.75 1.25
O 23.75 18.75 1.25
O  1.25 21.25 1.25
O  3.75 21.25 1.25
O  6.25 21.25 1.25
O  8.75 21.25 1.25
O 11.25 21.25 1.25
O 13.75 21.25 1.25
O 16.25 21.25 1.25
O 18.75 21.25 1.25
O 21.25 21.25 1.25
O 23.75 21.25 1.25
O  1.25 23.75 1.25
O  3.75 23.75 1.25
O  6.25 23.75 1.25
O  8.75 23.75 1.25
O 11.25 23.75 1.25
O 13.75 23.75 1.25
O 16.25 23.75 1.25
O 18.75 23.75 1.25
O 21.25 23.75 1.25
O 23.75 23.75 1.25
O  1.25 1.25 3.75
O  3.75 1.25 3.75
O  6.25 1.25 3.75
O  8.75 1.25 3.75
O 11.25 1.25 3.75
O 13.75 1.25 3.75
O 16.25 1.25 3.75
O 18.75 1.25 3.75
O 21.25 1.25 3.75
O 23.75 1.25 3.75
O  1.25 3.75 3.75
O  3.75 3.75 3.75
O  6.25 3.75 3.75
O  8.75 3.75 3.75
O 11.25 3.75 3.75
O 13.75 3.75 3.75
O 16.25 3.75 3.75
O 18.75 3.75 3.75
O 21.25 3.75 3.75
O 23.75 3.75 3.75
O  1.25 6.25 3.75
O  3.75 6.25 3.75
O  6.25 6.25 3.75
O  8.75 6.25 3.75
O 11.25 6.25 3.75
O 13.75 6.25 3.75
O 16.25 6.25 3.75
O 18.75 6.25 3.75
O 21.25 6.25 3.75
O 23.75 6.25 3.75
O  1.25 8.75 3.75
O  3.75 8.75 3.75
O  6.25 8.75 3.75
O  8.75 8.75 3.75
O 11.25 8.75 3.75
O 13.75 8.75 3.75
O 16.25 8.75 3.75
O 18.75 8.75 3.75
O 21.25 8.75 3.75
O 23.75 8.75 3.75
O  1.25 11.25 3.75
O  3.75 11.25 3.75
O  6.25 11.25 3.75
O  8.75 11.25 3.75
O 11.25 11.25 3.75
O 13.75 11.25 3.75
O 16.25 11.25 3.75
O 18.75 11.25 3.75
O 21.25 11.25 3.75
O 23.75 11.25 3.75
O  1.25 13.75 3.75
O  3.75 13.75 3.75
O  6.25 13.75 3.75
O  8.75 13.75 3.75
O 11.25 13.75 3.75
O 13.75 13.75 3.75
O 16.25 13.75 3.75
O 18.75 13.75 3.75
O 21.25 13.75 3.75
O 23.75 13.75 3.75
O  1.25 16.25 3.75
O  3.75 16.25 3.75
O  6.25 16.25 3.75
O  8.75 16.25 3.75
O 11.25 16.25 3.75
O 13.75 16.25 3.75
O 16.25 16.25 3.75
O 18.75 16.25 3.75
O 21.25 16.25 3.75
O 23.75 16.25 3.75
O  1.25 18.75 3.75
O  3.75 18.75 3.75
O  6.25 18.75 3.75
O  8.75 18.75 3.75
O 11.25 18.75 3.75
O 13.75 18.75 3.75
O 16.25 18.75 3.75
O 18.75 18.75 3.75
O 21.25 18.75 3.75
O 23.75 18.75 3.75
O  1.25 21.25 3.75
O  3.75 21.25 3.75
O  6.25 21.25 3.75
O  8.75 21.25 3.75
O 11.25 21.25 3.75
O 13.75 21.25 3.75
O 16.25 21.25 3.75
O 18.75 21.25 3.75
O 21.25 21.25 3.75
O 23.75 21.25 3.75
O  1.25 23.75 3.75
O  3.75 23.75 3.75
O  6.25 23.75 3.75
O  8.75 23.75 3.75
O 11.25 23.75 3.75
O 13.75 23.75 3.75
O 16.25 23.75 3.75
O 18.75 23.75 3.75
O 21.25 23.75 3.75
O 23.75 23.75 3.75
O  1.25 1.25 6.25
O  3.75 1.25 6.25
O  6.25 1.25 6.25
O  8.75 1.25 6.25
O 11.25 1.25 6.25
O 13.75 1.25 6.25
O 16.25 1.25 6.25
O 18.75 1.25 6.25
O 21.25 1.25 6.25
O 23.75 1.25 6.25
O  1.25 3.75 6.25
O  3.75 3.75 6.25
O  6.25 3.75 6.25
O  8.75 3.75 6.25
O 11.25 3.75 6.25
O 13.75 3.75 6.25
O 16.25 3.75 6.25
O 18.75 3.75 6.25
O 21.25 3.75 6.25
O 23.75 3.75 6.25
O  1.25 6.25 6.25
O  3.75 6.25 6.25
O  6.25 6.25 6.25
O  8.75 6.25 6.25
O  11.25 6.25 6.25
O  13.75 6.25 6.25
O  16.25 6.25 6.25
O  18.75 6.25 6.25
O  21.25 6.25 6.25
O  23.75 6.25 6.25
O  1.25 8.75 6.25
O  3.75 8.75 6.25
O  6.25 8.75 6.25
O  8.75 8.75 6.25
O  11.25 8.75 6.25
O  13.75 8.75 6.25
O  16.25 8.75 6.25
O  18.75 8.75 6.25
O  21.25 8.75 6.25
O  23.75 8.75 6.25
O  1.25 11.25 6.25
O  3.75 11.25 6.25
O  6.25 11.25 6.25
O  8.75 11.25 6.25
O  11.25 11.25 6.25
O  13.75 11.25 6.25
O  16.25 11.25 6.25
O  18.75 11.25 6.25
O  21.25 11.25 6.25
O  23.75 11.25 6.25
O  1.25 13.75 6.25
O  3.75 13.75 6.25
O  6.25 13.75 6.25
O  8.75 13.75 6.25
O  11.25 13.75 6.25
O  13.75 13.75 6.25
O  16.25 13.75 6.25
O  18.75 13.75 6.25
O  21.25 13.75 6.25
O  23.75 13.75 6.25
O  1.25 16.25 6.25
O  3.75 16.25 6.25
O  6.25 16.25 6.25
O  8.75 16.25 6.25
O  11.25 16.25 6.25
O  13.75 16.25 6.25
O  16.25 16.25 6.25
O  18.75 16.25 6.25
O  21.25 16.25 6.25
O  23.75 16.25 6.25
O  1.25 18.75 6.25
O  3.75 18.75 6.25
O  6.25 18.75 6.25
O  8.75 18.75 6.25
O  11.25 18.75 6.25
O  13.75 18.75 6.25
O  16.25 18.75 6.25
O  18.75 18.75 6.25
O  21.25 18.75 6.25
O  23.75 18.75 6.25
O  1.25 21.25 6.25
O  3.75 21.25 6.25
O  6.25 21.25 6.25
O  8.75 21.25 6.25
O  11.25 21.25 6.25
O  13.75 21.25 6.25
O  16.25 21.25 6.25
O  18.75 21.25 6.25
O  21.25 21.25 6.25
O  23.75 21.25 6.25
O  1.25 23.75 6.25
O  3.75 23.75 6.25
O  6.25 23.75 6.25
O  8.75 23.75 6.25
O  11.25 23.75 6.25
O  13.75 23.75 6.25
O  16.25 23.75 6.25
O  18.75 23.75 6.25
O  21.25 23.75 6.25
O  23.75 23.75 6.25
O  1.25 1.25 8.75
O  3.75 1.25 8.75
O  6.25 1.25 8.75
O  8.75 1.25 8.75
O  11.25 1.25 8.75
O  13.75 1.25 8.75
O  16.25 1.25 8.75
O  18.75 1.25 8.75
O  21.25 1.25 8.75
O  23.75 1.25 8.75
O  1.25 3.75 8.75
O  3.75 3.75 8.75
O  6.25 3.75 8.75
O  8.75 3.75 8.75
O  11.25 3.75 8.75
O  13.75 3.75 8.75
O  16.25 3.75 8.75
O  18.75 3.75 8.75
O  21.25 3.75 8.75
O  23.75 3.75 8.75
O  1.25 6.25 8.75
O  3.75 6.25 8.75
O  6.25 6.25 8.75
O  8.75 6.25 8.75
O  11.25 6.25 8.75
O  13.75 6.25 8.75
O  16.25 6.25 8.75
O  18.75 6.25 8.75
O  21.25 6.25 8.75
O  23.75 6.25 8.75
O  1.25 8.75 8.75
O  3.75 8.75 8.75
O  6.25 8.75 8.75
O  8.75 8.75 8.75
O  11.25 8.75 8.75
O  13.75 8.75 8.75
O  16.25 8.75 8.75
O  18.75 8.75 8.75
O  21.25 8.75 8.75
O  23.75 8.75 8.75
O  1.25 11.25 8.75
O  3.75 11.25 8.75
O  6.25 11.25 8.75
O  8.75 11.25 8.75
O  11.25 11.25 8.75
O  13.75 11.25 8.75
O  16.25 11.25 8.75
O  18.75 11.25 8.75
O  21.25 11.25 8.75
O  23.75 11.25 8.75
O  1.25 13.75 8.75
O  3.75 13.75 8.75
O  6.25 13.75 8.75
O  8.75 13.75 8.75
O  11.25 13.75 8.75
O  13.75 13.75 8.75
O  16.25 13.75 8.75
O  18.75 13.75 8.75
O  21.25 13.75 8.75
O  23.75 13.75 8.75
O  1.25 16.25 8.75
O  3.75 16.25 8.75
O  6.25 16.25 8.75
O  8.75 16.25 8.75
O  11.25 16.25 8.75
O  13.75 16.25 8.75
O  16.25 16.25 8.75
O  18.75 16.25 8.75
O  21.25 16.25 8.75
O  23.75 16.25 8.75
O  1.25 18.75 8.75
O  3.75 18.75 8.75
O  6.25 18.75 8.75
O  8.75 18.75 8.75
O  11.25 18.75 8.75
O  13.75 18.75 8.75
O  16.25 18.75 8.75
O  18.75 18.75 8.75
O  21.25 18.75 8.75
O  23.75 18.75 8.75
O  1.25 21.25 8.75
O  3.75 21.25 8.75
O  6.25 21.25 8.75
O  8.75 21.25 8.75
O  11.25 21.25 8.75
O  13.75 21.25 8.75
O  16.25 21.25 8.75
O  18.75 21.25 8.75
O  21.25 21.25 8.75
O  23.75 21.25 8.75
O  1.25 23.75 8.75
O  3.75 23.75 8.75
O  6.25 23.75 8.75
O  8.75 23.75 8.75
O  11.25 23.75 8.75
O  13.75 23.75 8.75
O  16.25 23.75 8.75
O  18.75 23.75 8.75
O  21.25 23.75 8.75
O  23.75 23.75 8.75
O  1.25 1.25 11.25
O  3.75 1.25 11.25
O  6.25 1.25 11.25
O  8.75 1.25 11.25
O  11.25 1.25 11.25
O  13.75 1.25 11.25
O  16.25 1.25 11.25
O  18.75 1.25 11.25
O  21.25 1.25 11.25
O  23.75 1.25 11.25
O  1.25 3.75 11.25
O  3.75 3.75 11.25
O  6.25 3.75 11.25
O  8.75 3.75 11.25
O  11.25 3.75 11.25
O  13.75 3.75 11.25
O  16.25 3.75 11.25
O  18.75 3.75 11.25
O  21.25 3.75 11.25
O  23.75 3.75 11.25
O  1.25 6.25 11.25
O  3.75 6.25 11.25
O  6.25 6.25 11.25
O  8.75 6.25 11.25
O  11.25 6.25 11.25
O  13.75 6.25 11.25
O  16.25 6.25 11.25
O  18.75 6.25 11.25
O  21.25 6.25 11.25
O  23.75 6.25 11.25
O  1.25 8.75 11.25
O  3.75 8.75 11.25
O  6.25 8.75 11.25
O  8.75 8.75 11.25
O  11.25 8.75 11.25
O  13.75 8.75 11.25
O  16.25 8.75 11.25
O  18.75 8.75 11.25
O  21.25 8.75 11.25
O  23.75 8.75 11.25
O  1.25 11.25 11.25
O  3.75 11.25 11.25
O  6.25 11.25 11.25
O  8.75 11.25 11.25
O  11.25 11.25 11.25
O  13.75 11.25 11.25
O  16.25 11.25 11.25
O  18.75 11.25 11.25
O  21.25 11.25 11.25
O  23.75 11.25 11.25
O  1.25 13.75 11.25
O  3.75 13.75 11.25
O  6.25 13.75 11.25
O  8.75 13.75 11.25
O  11.25 13.75 11.25
O  13.75 13.75 11.25
O  16.25 13.75 11.25
O  18.75 13.75 11.25
O  21.25 13.75 11.25
O  23.75 13.75 11.25
O  1.25 16.25 11.25
O  3.75 16.25 11.25
O  6.25 16.25 11.25
O  8.75 16.25 11.25
O  11.25 16.25 11.25
O  13.75 16.25 11.25
O  16.25 16.25 11.25
O  18.75 16.25 11.25
O  21.25 16.25 11.25
O  23.75 16.25 11.25
O  1.25 18.75 11.25
O  3.75 18.75 11.25
O  6.25 18.75 11.25
O  8.75 18.75 11.25
O  11.25 18.75 11.25
O  13.75 18.75 11.25
O  16.25 18.75 11.25
O  18.75 18.75 11.25
O  21.25 18.75 11.25
O  23.75 18.75 11.25
O  1.25 21.25 11.25
O  3.75 21.25 11.25
O  6.25 21.25 11.25
O  8.75 21.25 11.25
O  11.25 21.25 11.25
O  13.75 21.25 11.25
O  16.25 21.25 11.25
O  18.75 21.25 11.25
O  21.25 21.25 11.25
O  23.75 21.25 11.25
O  1.25 23.75 11.25
O  3.75 23.75 11.25
O  6.25 23.75 11.25
O  8.75 23.75 11.25
O  11.25 23.75 11.25
O  13.75 23.75 11.25
O  16.25 23.75 11.25
O  18.75 23.75 11.25
O  21.25 23.75 11.25
O  23.75 23.75 11.25
O  1.25 1.25 13.75
O  3.75 1.25 13.75
O  6.25 1.25 13.75
O  8.75 1.25 13.75
O  11.25 1.25 13.75
O  13.75 1.25 13.75
O  16.25 1.25 13.75
O  18.75 1.25 13.75
O  21.25 1.25 13.75
O  23.75 1.25 13.75
O  1.25 3.75 13.75
O  3.75 3.75 13.75
O  6.25 3.75 13.75
O  8.75 3.75 13.75
O  11.25 3.75 13.75
O  13.75 3.75 13.75
O  16.25 3.75 13.75
O  18.75 3.75 13.75
O  21.25 3.75 13.75
O  23.75 3.75 13.75
O  1.25 6.25 13.75
O  3.75 6.25 13.75
O  6.25 6.25 13.75
O  8.75 6.25 13.75
O  11.25 6.25 13.75
O  13.75 6.25 13.75
O  16.25 6.25 13.75
O  18.75 6.25 13.75
O  21.25 6.25 13.75
O  23.75 6.25 13.75
O  1.25 8.75 13.75
O  3.75 8.75 13.75
O  6.25 8.75 13.75
O  8.75 8.75 13.75
O  11.25 8.75 13.75
O  13.75 8.75 13.75
O  16.25 8.75 13.75
O  18.75 8.75 13.75
O  21.25 8.75 13.75
O  23.75 8.75 13.75
O  1.25 11.25 13.75
O  3.75 11.25 13.75
O  6.25 11.25 13.75
O  8.75 11.25 13.75
O  11.25 11.25 13.75
O  13.75 11.25 13.75
O  16.25 11.25 13.75
O  18.75 11.25 13.75
O  21.25 11.25 13.75
O  23.75 11.25 13.75
O  1.25 13.75 13.75
O  3.75 13.75 13.75
O  6.25 13.75 13.75
O  8.75 13.75 13.75
O  11.25 13.75 13.75
O  13.75 13.75 13.75
O  16.25 13.75 13.75
O  18.75 13.75 13.75
O  21.25 13.75 13.75
O  23.75 13.75 13.75
O  1.25 16.25 13.75
O  3.75 16.25 13.75
O  6.25 16.25 13.75
O  8.75 16.25 13.75
O  11.25 16.25 13.75
O  13.75 16.25 13.75
O  16.25 16.25 13.75
O  18.75 16.25 13.75
O  21.25 16.25 13.75
O  23.75 16.25 13.75
O  1.25 18.75 13.75
O  3.75 18.75 13.75
O  6.25 18.75 13.75
O  8.75 18.75 13.75
O  11.25 18.75 13.75
O  13.75 18.75 13.75
O  16.25 18.75 13.75
O  18.75 18.75 13.75
O  21.25 18.75 13.75
O  23.75 18.75 13.75
O  1.25 21.25 13.75
O  3.75 21.25 13.75
O  6.25 21.25 13.75
O  8.75 21.25 13.75
O  11.25 21.25 13.75
O  13.75 21.25 13.75
O  16.25 21.25 13.75
O  18.75 21.25 13.75
O  21.25 21.25 13.75
O  23.75 21.25 13.75
O  1.25 23.75 13.75
O  3.75 23.75 13.75
O  6.25 23.75 13.75
O  8.75 23.75 13.75
O  11.25 23.75 13.75
O  13.75 23.75 13.75
O  16.25 23.75 13.75
O  18.75 23.75 13.75
O  21.25 23.75 13.75
O  23.75 23.75 13.75
O  1.25 1.25 16.25
O  3.75 1.25 16.25
O  6.25 1.25 16.25
O  8.75 1.25 16.25
O  11.25 1.25 16.25
O  13.75 1.25 16.25
O  16.25 1.25 16.25
O  18.75 1.25 16.25
O  21.25 1.25 16.25
O  23.75 1.25 16.25
O  1.25 3.75 16.25
O  3.75 3.75 16.25
O  6.25 3.75 16.25
O  8.75 3.75 16.25
O  11.25 3.75 16.25
O  13.75 3.75 16.25
O  16.25 3.75 16.25
O  18.75 3.75 16.25
O  21.25 3.75 16.25
O  23.75 3.75 16.25
O  1.25 6.25 16.25
O  3.75 6.25 16.25
O  6.25 6.25 16.25
O  8.75 6.25 16.25
O  11.25 6.25 16.25
O  13.75 6.25 16.25
O  16.25 6.25 16.25
O  18.75 6.25 16.25
O  21.25 6.25 16.25
O  23.75 6.25 16.25
O  1.25 8.75 16.25
O  3.75 8.75 16.25
O  6.25 8.75 16.25
O  8.75 8.75 16.25
O  11.25 8.75 16.25
O  13.75 8.75 16.25
O  16.25 8.75 16.25
O  18.75 8.75 16.25
O  21.25 8.75 16.25
O  23.75 8.75 16.25
O  1.25 11.25 16.25
O  3.75 11.25 16.25
O  6.25 11.25 16.25
O  8.75 11.25 16.25
O  11.25 11.25 16.25
O  13.75 11.25 16.25
O  16.25 11.25 16.25
O  18.75 11.25 16.25
O  21.25 11.25 16.25
O  23.75 11.25 16.25
O  1.25 13.75 16.25
O  3.75 13.75 16.25
O  6.25 13.75 16.25
O  8.75 13.75 16.25
O  11.25 13.75 16.25
O  13.75 13.75 16.25
O  16.25 13.75 16.25
O  18.75 13.75 16.25
O  21.25 13.75 16.25
O  23.75 13.75 16.25
O  1.25 16.25 16.25
O  3.75 16.25 16.25
O  6.25 16.25 16.25
O  8.75 16.25 16.25
O  11.25 16.25 16.25
O  13.75 16.25 16.25
O  16.25 16.25 16.25
O  18.75 16.25 16.25
O  21.25 16.25 16.25
O  23.75 16.25 16.25
O  1.25 18.75 16.25
O  3.75 18.75 16.25
O  6.25 18.75 16.25
O  8.75 18.75 16.25
O  11.25 18.75 16.25
O  13.75 18.75 16.25
O  16.25 18.75 16.25
O  18.75 18.75 16.25
O  21.25 18.75 16.25
O  23.75 18.75 16.25
O  1.25 21.25 16.25
O  3.75 21.25 16.25
O  6.25 21.25 16.25
O  8.75 21.25 16.25
O  11.25 21.25 16.25
O  13.75 21.25 16.25
O  16.25 21.25 16.25
O  18.75 21.25 16.25
O  21.25 21.25 16.25
O  23.75 21.25 16.25
O  1.25 23.75 16.25
O  3.75 23.75 16.25
O  6.25 23.75 16.25
O  8.75 23.75 16.25
O  11.25 23.75 16.25
O  13.75 23.75 16.25
O  16.25 23.75 16.25
O  18.75 23.75 16.25
O  21.25 23.75 16.25
O  23.75 23.75 16.25
O  1.25 1.25 18.75
O  3.75 1.25 18.75
O  6.25 1.25 18.75
O  8.75 1.25 18.75
O  11.25 1.25 18.75
O  13.75 1.25 18.75
O  16.25 1.25 18.75
O  18.75 1.25 18.75
O  21.25 1.25 18.75
O  23.75 1.25 18.75
O  1.25 3.75 18.75
O  3.75 3.75 18.75
O  6.25 3.75 18.75
O  8.75 3.75 18.75
O  11.25 3.75 18.75
O  13.75 3.75 18.75
O  16.25 3.75 18.75
O  18.75 3.75 18.75
O  21.25 3.75 18.75
O  23.75 3.75 18.75
O  1.25 6.25 18.75
O  3.75 6.25 18.75
O  6.25 6.25 18.75
O  8.75 6.25 18.75
O  11.25 6.25 18.75
O  13.75 6.25 18.75
O  16.25 6.25 18.75
O  18.75 6.25 18.75
O  21.25 6.25 18.75
O  23.75 6.25 18.75
O  1.25 8.75 18.75
O  3.75 8.75 18.75
O  6.25 8.75 18.75
O  8.75 8.75 18.75
O  11.25 8.75 18.75
O  13.75 8.75 18.75
O  16.25 8.75 18.75
O  18.75 8.75 18.75
O  21.25 8.75 18.75
O  23.75 8.75 18.75
O  1.25 11.25 18.75
O  3.75 11.25 18.75
O  6.25 11.25 18.75
O  8.75 11.25 18.75
O  11.25 11.25 18.75
O  13.75 11.25 18.75
O  16.25 11.25 18.75
O  18.75 11.25 18.75
O  21.25 11.25 18.75
O  23.75 11.25 18.75
O  1.25 13.75 18.75
O  3.75 13.75 18.75
O  6.25 13.75 18.75
O  8.75 13.75 18.75
O  11.25 13.75 18.75
O  13.75 13.75 18.75
O  16.25 13.75 18.75
O  18.75 13.75 18.75
O  21.25 13.75 18.75
O  23.75 13.75 18.75
O  1.25 16.25 18.75
O  3.75 16.25 18.75
O  6.25 16.25 18.75
O  8.75 16.25 18.75
O  11.25 16.25 18.75
O  13.75 16.25 18.75
O  16.25 16.25 18.75
O  18.75 16.25 18.75
O  21.25 16.25 18.75
O  23.75 16.25 18.75
O  1.25 18.75 18.75
O  3.75 18.75 18.75
O  6.25 18.75 18.75
O  8.75 18.75 18.75
O  11.25 18.75 18.75
O  13.75 18.75 18.75
O  16.25 18.75 18.75
O  18.75 18.75 18.75
O  21.25 18.75 18.75
O  23.75 18.75 18.75
O  1.25 21.25 18.75
O  3.75 21.25 18.75
O  6.25 21.25 18.75
O  8.75 21.25 18.75
O  11.25 21.25 18.75
O  13.75 21.25 18.75
O  16.25 21.25 18.75
O  18.75 21.25 18.75
O  21.25 21.25 18.75
O  23.75 21.25 18.75
O  1.25 23.75 18.75
O  3.75 23.75 18.75
O  6.25 23.75 18.75
O  8.75 23.75 18.75
O  11.25 23.75 18.75
O  13.75 23.75 18.75
O  16.25 23.75 18.75
O  18.75 23.75 18.75
O  21.25 23.75 18.75
O  23.75 23.75 18.75
O  1.25 1.25 21.25
O  3.75 1.25 21.25
O  6.25 1.25 21.25
O  8.75 1.25 21.25
O  11.25 1.25 21.25
O  13.75 1.25 21.25
O  16.25 1.25 21.25
O  18.75 1.25 21.25
O  21.25 1.25 21.25
O  23.75 1.25 21.25
O  1.25 3.75 21.25
O  3.75 3.75 21.25
O  6.25 3.75 21.25
O  8.75 3.75 21.25
O  11.25 3.75 21.25
O  13.75 3.75 21.25
O  16.25 3.75 21.25
O  18.75 3.75 21.25
O  21.25 3.75 21.25
O  23.75 3.75 21.25
O  1.25 6.25 21.25
O  3.75 6.25 21.25
O  6.25 6.25 21.25
O  8.75 6.25 21.25
O  11.25 6.25 21.25
O  13.75 6.25 21.25
O  16.25 6.25 21.25
O  18.75 6.25 21.25
O  21.25 6.25 21.25
O  23.75 6.25 21.25
O  1.25 8.75 21.25
O  3.75 8.75 21.25
O  6.25 8.75 21.25
O  8.75 8.75 21.25
O  11.25 8.75 21.25
O  13.75 8.75 21.25
O  16.25 8.75 21.25
O  18.75 8.75 21.25
O  21.25 8.75 21.25
O  23.75 8.75 21.25
O  1.25 11.25 21.25
O  3.75 11.25 21.25
O  6.25 11.25 21.25
O  8.75 11.25 21.25
O  11.25 11.25 21.25
O  13.75 11.25 21.25
O  16.25 11.25 21.25
O  18.75 11.25 21.25
O  21.25 11.25 21.25
O  23.75 11.25 21.25
O  1.25 13.75 21.25
O  3.75 13.75 21.25
O  6.25 13.75 21.25
O  8.75 13.75 21.25
O  11.25 13.75 21.25
O  13.75 13.75 21.25
O  16.25 13.75 21.25
O  18.75 13.75 21.25
O  21.25 13.75 21.25
O  23.75 13.75 21.25
O  1.25 16.25 21.25
O  3.75 16.25 21.25
O  6.25 16.25 21.25
O  8.75 16.25 21.25
O  11.25 16.25 21.25
O  13.75 16.25 21.25
O  16.25 16.25 21.25
O  18.75 16.25 21.25
O  21.25 16.25 21.25
O  23.75 16.25 21.25
O  1.25 18.75 21.25
O  3.75 18.75 21.25
O  6.25 18.75 21.25
O  8.75 18.75 21.25
O  11.25 18.75 21.25
O  13.75 18.75 21.25
O  16.25 18.75 21.25
O  18.75 18.75 21.25
O  21.25 18.75 21.25
O  23.75 18.75 21.25
O  1.25 21.25 21.25
O  3.75 21.25 21.25
O  6.25 21.25 21.25
O  8.75 21.25 21.25
O  11.25 21.25 21.25
O  13.75 21.25 21.25
O  16.25 21.25 21.25
O  18.75 21.25 21.25
O  21.25 21.25 21.25
O  23.75 21.25 21.25
O  1.25 23.75 21.25
O  3.75 23.75 21.25
O  6.25 23.75 21.25
O  8.75 23.75 21.25
O  11.25 23.75 21.25
O  13.75 23.75 21.25
O  16.25 23.75 21.25
O  18.75 23.75 21.25
O  21.25 23.75 21.25
O  23.75 23.75 21.25
O  1.25 1.25 23.75
O  3.75 1.25 23.75
O  6.25 1.25 23.75
O  8.75 1.25 23.75
O  11.25 1.25 23.75
O  13.75 1.25 23.75
O  16.25 1.25 23.75
O  18.75 1.25 23.75
O  21.25 1.25 23.75
O  23.75 1.25 23.75
O  1.25 3.75 23.75
O  3.75 3.75 23.75
O  6.25 3.75 23.75
O  8.75 3.75 23.75
O  11.25 3.75 23.75
O  13.75 3.75 23.75
O  16.25 3.75 23.75
O  18.75 3.75 23.75
O  21.25 3.75 23.75
O  23.75 3.75 23.75
O  1.25 6.25 23.75
O  3.75 6.25 23.75
O  6.25 6.25 23.75
O  8.75 6.25 23.75
O  11.25 6.25 23.75
O  13.75 6.25 23.75
O  16.25 6.25 23.75
O  18.75 6.25 23.75
O  21.25 6.25 23.75
O  23.75 6.25 23.75
O  1.25 8.75 23.75
O  3.75 8.75 23.75
O  6.25 8.75 23.75
O  8.75 8.75 23.75
O  11.25 8.75 23.75
O  13.75 8.75 23.75
O  16.25 8.75 23.75
O  18.75 8.75 23.75
O  21.25 8.75 23.75
O  23.75 8.75 23.75
O  1.25 11.25 23.75
O  3.75 11.25 23.75
O  6.25 11.25 23.75
O  8.75 11.25 23.75
O  11.25 11.25 23.75
O  13.75 11.25 23.75
O  16.25 11.25 23.75
O  18.75 11.25 23.75
O  21.25 11.25 23.75
O  23.75 11.25 23.75
O  1.25 13.75 23.75
O  3.75 13.75 23.75
O  6.25 13.75 23.75
O  8.75 13.75 23.75
O  11.25 13.75 23.75
O  13.75 13.75 23.75
O  16.25 13.75 23.75
O  18.75 13.75 23.75
O  21.25 13.75 23.75
O  23.75 13.75 23.75
O  1.25 16.25 23.75
O  3.75 16.25 23.75
O  6.25 16.25 23.75
O  8.75 16.25 23.75
O  11.25 16.25 23.75
O  13.75 16.25 23.75
O  16.25 16.25 23.75
O  18.75 16.25 23.75
O  21.25 16.25 23.75
O  23.75 16.25 23.75
O  1.25 18.75 23.75
O  3.75 18.75 23.75
O  6.25 18.75 23.75
O  8.75 18.75 23.75
O  11.25 18.75 23.75
O  13.75 18.75 23.75
O  16.25 18.75 23.75
O  18.75 18.75 23.75
O  21.25 18.75 23.75
O  23.75 18.75 23.75
O  1.25 21.25 23.75
O  3.75 21.25 23.75
O  6.25 21.25 23.75
O  8.75 21.25 23.75
O  11.25 21.25 23.75
O  13.75 21.25 23.75
O  16.25 21.25 23.75
O  18.75 21.25 23.75
O  21.25 21.25 23.75
O  23.75 21.25 23.75
O  1.25 23.75 23.75
O  3.75 23.75 23.75
O  6.25 23.75 23.75
O  8.75 23.75 23.75
O  11.25 23.75 23.75
O  13.75 23.75 23.75
O  16.25 23.75 23.75
O  18.75 23.75 23.75
O  21.25 23.75 23.75
O  23.75 23.75 23.75
O  1.25 1.25 1.25
O  3.75 1.25 1.25
O  6.25 1.25 1.25
O  8.75 1.25 1.25
O  11.25 1.25 1.25
O  13.75 1.25 1.25
O  16.25 1.25 1.25
O  18.75 1.25 1.25
O  21.25 1.25 1.25
O  23.75 1.25 1.25
O  1.25 3.75 1.25
O  3.75 3.75 1.25
O  6.25 3.75 1.25
O  8.75 3.75 1.25
O  11.25 3.75 1.25
O  13.75 3.75 1.25
O  16.25 3.75 1.25
O  18.75 3.75 1.25
O  21.25 3.75 1.25
O  23.75 3.75 1.25
O  1.25 6.25 1.25
O  3.75 6.25 1.25
O  6.25 6.25 1.25
O  8.75 6.25 1.25
O  11.25 6.25 1.25
O  13.75 6.25 1.25
O  16.25 6.25 1.25
O  18.75 6.25 1.25
O  21.25 6.25 1.25
O  23.75 6.25 1.25
O  1.25 8.75 1.25
O  3.75 8.75 1.25
O  6.25 8.75 1.25
O  8.75 8.75 1.25
O  11.25 8.75 1.25
O  13.75 8.75 1.25
O  16.25 8.75 1.25
O  18.75 8.75 1.25
O  21.25 8.75 1.25
O  23.75 8.75 1.25
O  1.25 11.25 1.25
O  3.75 11.25 1.25
O  6.25 11.25 1.25
O  8.75 11.25 1.25
O  11.25 11.25 1.25
O  13.75 11.25 1.25
O  16.25 11.25 1.25
O  18.75 11.25 1.25
O  21.25 11.25 1.25
O  23.75 11.25 1.25
O  1.25 13.75 1.25
O  3.75 13.75 1.25
O  6.25 13.75 1.25
O  8.75 13.75 1.25
O  11.25 13.75 1.25
O  13.75 13.75 1.25
O  16.25 13.75 1.25
O  18.75 13.75 1.25
O  21.25 13.75 1.25
O  23.75 13.75 1.25
O  1.25 16.25 1.25
O  3.75 16.25 1.25
O  6.25 16.25 1.25
O  8.75 16.25 1.25
O  11.25 16.25 1.25
O  13.75 16.25 1.25
O  16.25 16.25 1.25
O  18.75 16.25 1.25
O  21.25 16.25 1.25
O  23.75 16.25 1.25
O  1.25 18.75 1.25
O  3.75 18.75 1.25
O  6.25 18.75 1.25
O  8.75 18.75 1.25
O  11.25 18.75 1.25
O  13.75 18.75 1.25
O  16.25 18.75 1.25
O  18.75 18.75 1.25
O  21.25 18.75 1.25
O  23.75 18.75 1.25
O  1.25 21.25 1.25
O  3.75 21.25 1.25
O  6.25 21.25 1.25
O  8.75 21.25 1.25
O  11.25 21.25 1.25
O  13.75 21.25 1.25
O  16.25 21.25 1.25
O  18.75 21.25 1.25
O  21.25 21.25 1.25
O  23.75 21.25 1.25
O  1.25 23.75 1.25
O  3.75 23.75 1.25
O  6.25 23.75 1.25
O  8.75 23.75 1.25
O  11.25 23.75 1.25
O  13.75 23.75 1.25
O  16.25 23.75 1.25
O  18.75 23.75 1.25
O  21.25 23.75 1.25
O  23.75 23.75 1.25
O  1.25 1.25 3.75
O  3.75 1.25 3.75
O  6.25 1.25 3.75
O  8.75 1.25 3.75
O  11.25 1.25 3.75
O  13.75 1.25 3.75
O  16.25 1.25 3.75
O  18.75 1.25 3.75
O  21.25 1.25 3.75
O  23.75 1.25 3.75
O  1.25 3.75 3.75
O  3.75 3.75 3.75
O  6.25 3.75 3.75
O  8.75 3.75 3.75
O  11.25 3.75 3.75
O  13.75 3.75 3.75
O  16.25 3.75 3.75
O  18.75 3.75 3.75
O  21.25 3.75 3.75
O  23.75 3.75 3.75
O  1.25 6.25 3.75
O  3.75 6.25 3.75
O  6.25 6.25 3.75
O  8.75 6.25 3.75
O  11.25 6.25 3.75
O  13.75 6.25 3.75
O  16.25 6.25 3.75
O  18.75 6.25 3.75
O  21.25 6.25 3.75
O  23.75 6.25 3.75
O  1.25 8.75 3.75
O  3.75 8.75 3.75
O  6.25 8.75 3.75
O  8.75 8.75 3.75
O  11.25 8.75 3.75
O  13.75 8.75 3.75
O  16.25 8.75 3.75
O  18.75 8.75 3.75
O  21.25 8.75 3.75
O  23.75 8.75 3.75
O  1.25 11.25 3.75
O  3.75 11.25 3.75
O  6.25 11.25 3.75
O  8.75 11.25 3.75
O  11.25 11.25 3.75
O  13.75 11.25 3.75
O  16.25 11.25 3.75
O  18.75 11.25 3.75
O  21.25 11.25 3.75
O  23.75 11.25 3.75
O  1.25 13.75 3.75
O  3.75 13.75 3.75
O  6.25 13.75 3.75
O  8.75 13.75 3.75
O  11.25 13.75 3.75
O  13.75 13.75 3.75
O  16.25 13.75 3.75
O  18.75 13.75 3.75
O  21.25 13.75 3.75
O  23.75 13.75 3.75
O  1.25 16.25 3.75
O  3.75 16.25 3.75
O  6.25 16.25 3.75
O  8.75 16.25 3.75
O  11.25 16.25 3.75
O  13.75 16.25 3.75
O  16.25 16.25 3.75
O  18.75 16.25 3.75
O  21.25 16.25 3.75
O  23.75 16.25 3.75
O  1.25 18.75 3.75
O  3.75 18.75 3.75
O  6.25 18.75 3.75
O  8.75 18.75 3.75
O  11.25 18.75 3.75
O  13.75 18.75 3.75
O  16.25 18.75 3.75
O  18.75 18.75 3.75
O  21.25 18.75 3.75
O  23.75 18.75 3.75
O  1.25 21.25 3.75
O  3.75 21.25 3.75
O  6.25 21.25 3.75
O  8.75 21.25 3.75
O  11.25 21.25 3.75
O  13.75 21.25 3.75
O  16.25 21.25 3.75
O  18.75 21.25 3.75
O  21.25 21.25 3.75
O  23.75 21.25 3.75
O  1.25 23.75 3.75
O  3.75 23.75 3.75
O  6.25 23.75 3.75
O  8.75 23.75 3.75
O  11.25 23.75 3.75
O  13.75 23.75 3.75
O  16.25 23.75 3.75
O  18.75 23.75 3.75
O  21.25 23.75 3.75
O  23.75 23.75 3.75
O  1.25 1.25 6.25
O  3.75 1.25 6.25
O  6.25 1.25 6.25
O  8.75 1.25 6.25
O  11.25 1.25 6.25
O  13.75 1.25 6.25
O  16.25 1.25 6.25
O  18.75 1.25 6.25
O  21.25 1.25 6.25
O  23.75 1.25 6.25
O  1.25 3.75 6.25
O  3.75 3.75 6.25
O  6.25 3.75 6.25
O  8.75 3.75 6.25
O  11.25 3.75 6.25
O  13.75 3.75 6.25
O  16.25 3.75 6.25
O  18.75 3.75 6.25
O  21.25 3.75 6.25
O  23.75 3.75 6.25
O  1.25 6.25 6.25
O  3.75 6.25 6.25
O  6.25 6.25 6.25
O  8.75 6.25 6.25
O  11.25 6.25 6.25
O  13.75 6.25 6.25
O  16.25 6.25 6.25
O  18.75 6.25 6.25
O  21.25 6.25 6.25
O  23.75 6.25 6.25
O  1.25 8.75 6.25
O  3.75 8.75 6.25
O  6.25 8.75 6.25
O  8.75 8.75 6.25
O  11.25 8.75 6.25
O  13.75 8.75 6.25
O  16.25 8.75 6.25
O  18.75 8.75 6.25
O  21.25 8.75 6.25
O  23.75 8.75 6.25
O  1.25 11.25 6.25
O  3.75 11.25 6.25
O  6.25 11.25 6.25
O  8.75 11.25 6.25
O  11.25 11.25 6.25
O  13.75 11.25 6.25
O  16.25 11.25 6.25
O  18.75 11.25 6.25
O  21.25 11.25 6.25
O  23.75 11.25 6.25
O  1.25 13.75 6.25
O  3.75 13.75 6.25
O  6.25 13.75 6.25
O  8.75 13.75 6.25
O  11.25 13.75 6.25
O  13.75 13.75 6.25
O  16.25 13.75 6.25
O  18.75 13.75 6.25
O  21.25 13.75 6.25
O  23.75 13.75 6.25
O  1.25 16.25 6.25
O  3.75 16.25 6.25
O  6.25 16.25 6.25
O  8.75 16.25 6.25
O  11.25 16.25 6.25
O  13.75 16.25 6.25
O  16.25 16.25 6.25
O  18.75 16.25 6.25
O  21.25 16.25 6.25
O  23.75 16.25 6.25
O  1.25 18.75 6.25
O  3.75 18.75 6.25
O  6.25 18.75 6.25
O  8.75 18.75 6.25
O  11.25 18.75 6.25
O  13.75 18.75 6.25
O  16.25 18.75 6.25
O  18.75 18.75 6.25
O  21.25 18.75 6.25
O  23.75 18.75 6.25
O  1.25 21.25 6.25
O  3.75 21.25 6.25
O  6.25 21.25 6.25
O  8.75 21.25 6.25
O  11.25 21.25 6.25
O  13.75 21.25 6.25
O  16.25 21.25 6.25
O  18.75 21.25 6.25
O  21.25 21.25 6.25
O  23.75 21.25 6.25
O  1.25 23.75 6.25
O  3.75 23.75 6.25
O  6.25 23.75 6.25
O  8.75 23.75 6.25
O  11.25 23.75 6.25
O  13.75 23.75 6.25
O  16.25 23.75 6.25
O  18.75 23.75 6.25
O  21.25 23.75 6.25
O  23.75 23.75 6.25
O  1.25 1.25 8.75
O  3.75 1.25 8.75
O  6.25 1.25 8.75
O  8.75 1.25 8.75
O  11.25 1.25 8.75
O  13.75 1.25 8.75
O  16.25 1.25 8.75
O  18.75 1.25 8.75
O  21.25 1.25 8.75
O  23.75 1.25 8.75
O  1.25 3.75 8.75
O  3.75 3.75 8.75
O  6.25 3.75 8.75
O  8.75 3.75 8.75
O  11.25 3.75 8.75
O  13.75 3.75 8.75
O  16.25 3.75 8.75
O  18.75 3.75 8.75
O  21.25 3.75 8.75
O  23.75 3.75 8.75
O  1.25 6.25 8.75
O  3.75 6.25 8.75
O  6.25 6.25 8.75
O  8.75 6.25 8.75
O  11.25 6.25 8.75
O  13.75 6.25 8.75
O  16.25 6.25 8.75
O  18.75 6.25 8.75
O  21.25 6.25 8.75
O  23.75 6.25 8.75
O  1.25 8.75 8.75
O  3.75 8.75 8.75
O  6.25 8.75 8.75
O  8.75 8.75 8.75
O  11.25 8.75 8.75
O  13.75 8.75 8.75
O  16.25 8.75 8.75
O  18.75 8.75 8.75
O  21.25 8.75 8.75
O  23.75 8.75 8.75
O  1.25 11.25 8.75
O  3.75 11.25 8.75
O  6.25 11.25 8.75
O  8.75 11.25 8.75
O  11.25 11.25 8.75
O  13.75 11.25 8.75
O  16.25 11.25 8.75
O  18.75 11.25 8.75
O  21.25 11.25 8.75
O  23.75 11.25 8.75
O  1.25 13.75 8.75
O  3.75 13.75 8.75
O  6.25 13.75 8.75
O  8.75 13.75 8.75
O  11.25 13.75 8.75
O  13.75 13.75 8.75
O  16.25 13.75 8.75
O  18.75 13.75 8.75
O  21.25 13.75 8.75
O  23.75 13.75 8.75
O  1.25 16.25 8.75
O  3.75 16.25 8.75
O  6.25 16.25 8.75
O  8.75 16.25 8.75
O  11.25 16.25 8.75
O  13.75 16.25 8.75
O  16.25 16.25 8.75
O  18.75 16.25 8.75
O  21.25 16.25 8.75
O  23.75 16.25 8.75
O  1.25 18.75 8.75
O  3.75 18.75 8.75
O  6.25 18.75 8.75
O  8.75 18.75 8.75
O  11.25 18.75 8.75
O  13.75 18.75 8.75
O  16.25 18.75 8.75
O  18.75 18.75 8.75
O  21.25 18.75 8.75
O  23.75 18.75 8.75
O  1.25 21.25 8.75
O  3.75 21.25 8.75
O  6.25 21.25 8.75
O  8.75 21.25 8.75
O  11.25 21.25 8.75
O  13.75 21.25 8.75
O  16.25 21.25 8.75
O  18.75 21.25 8.75
O  21.25 21.25 8.75
O  23.75 21.25 8.75
O  1.25 23.75 8.75
O  3.75 23.75 8.75
O  6.25 23.75 8.75
O  8.75 23.75 8.75
O  11.25 23.75 8.75
O  13.75 23.75 8.75
O  16.25 23.75 8.75
O  18.75 23.75 8.75
O  21.25 23.75 8.75
O  23.75 23.75 8.75
O  1.25 1.25 11.25
O  3.75 1.25 11.25
O  6.25 1.25 11.25
O  8.75 1.25 11.25
O  11.25 1.25 11.25
O  13.75 1.25 11.25
O  16.25 1.25 11.25
O  18.75 1.25 11.25
O  21.25 1.25 11.25
O  23.75 1.25 11.25
O  1.25 3.75 11.25
O  3.75 3.75 11.25
O  6.25 3.75 11.25
O  8.75 3.75 11.25
O  11.25 3.75 11.25
O  13.75 3.75 11.25
O  16.25 3.75 11.25
O  18.75 3.75 11.25
O  21.25 3.75 11.25
O  23.75 3.75 11.25
O  1.25 6.25 11.25
O  3.75 6.25 11.25
O  6.25 6.25 11.25
O  8.75 6.25 11.25
O  11.25 6.25 11.25
O  13.75 6.25 11.25
O  16.25 6.25 11.25
O  18.75 6.25 11.25
O  21.25 6.25 11.25
O  23.75 6.25 11.25
O  1.25 8.75 11.25
O  3.75 8.75 11.25
O  6.25 8.75 11.25
O  8.75 8.75 11.25
O  11.25 8.75 11.25
O  13.75 8.75 11.25
O  16.25 8.75 11.25
O  18.75 8.75 11.25
O  21.25 8.75 11.25
O  23.75 8.75 11.25
O  1.25 11.25 11.25
O  3.75 11.25 11.25
O  6.25 11.25 11.25
O  8.75 11.25 11.25
O  11.25 11.25 11.25
O  13.75 11.25 11.25
O  16.25 11.25 11.25
O  18.75 11.25 11.25
O  21.25 11.25 11.25
O  23.75 11.25 11.25
O  1.25 13.75 11.25
O  3.75 13.75 11.25
O  6.25 13.75 11.25
O  8.75 13.75 11.25
O  11.25 13.75 11.25
O  13.75 13.75 11.25
O  16.25 13.75 11.25
O  18.75 13.75 11.25
O  21.25 13.75 11.25
O  23.75 13.75 11.25
O  1.25 16.25 11.25
O  3.75 16.25 11.25
O  6.25 16.25 11.25
O  8.75 16.25 11.25
O  11.25 16.25 11.25
O  13.75 16.25 11.25
O  16.25 16.25 11.25
O  18.75 16.25 11.25
O  21.25 16.25 11.25
O  23.75 16.25 11.25
O  1.25 18.75 11.25
O  3.75 18.75 11.25
O  6.25 18.75 11.25
O  8.75 18.75 11.25
O  11.25 18.75 11.25
O  13.75 18.75 11.25
O  16.25 18.75 11.25
O  18.75 18.75 11.25
O  21.25 18.75 11.25
O  23.75 18.75 11.25
O  1.25 21.25 11.25
O  3.75 21.25 11.25
O  6.25 21.25 11.25
O  8.75 21.25 11.25
O  11.25 21.25 11.25
O  13.75 21.25 11.25
O  16.25 21.25 11.25
O  18.75 21.25 11.25
O  21.25 21.25 11.25
O  23.75 21.25 11.25
O  1.25 23.75 11.25
O  3.75 23.75 11.25
O  6.25 23.75 11.25
O  8.75 23.75 11.25
O  11.25 23.75 11.25
O  13.75 23.75 11.25
O  16.25 23.75 11.25
O  18.75 23.75 11.25
O  21.25 23.75 11.25
O  23.75 23.75 11.25
O  1.25 1.25 13.75
O  3.75 1.25 13.75
O  6.25 1.25 13.75
O  8.75 1.25 13.75
O  11.25 1.25 13.75
O  13.75 1.25 13.75
O  16.25 1.25 13.75
O  18.75 1.25 13.75
O  21.25 1.25 13.75
O  23.75 1.25 13.75
O  1.25 3.75 13.75
O  3.75 3.75 13.75
O  6.25 3.75 13.75
O  8.75 3.75 13.75
O  11.25 3.75 13.75
O  13.75 3.75 13.75
O  16.25 3.75 13.75
O  18.75 3.75 13.75
O  21.25 3.75 13.75
O  23.75 3.75 13.75
O  1.25 6.25 13.75
O  3.75 6.25 13.75
O  6.25 6.25 13.75
O  8.75 6.25 13.75
O  11.25 6.25 13.75
O  13.75 6.25 13.75
O  16.25 6.25 13.75
O  18.75 6.25 13.75
O  21.25 6.25 13.75
O  23.75 6.25 13.75
O  1.25 8.75 13.75
O  3.75 8.75 13.75
O  6.25 8.75 13.75
O  8.75 8.75 13.75
O  11.25 8.75 13.75
O  13.75 8.75 13.75
O  16.25 8.75 13.75
O  18.75 8.75 13.75
O  21.25 8.75 13.75
O  23.75 8.75 13.75
O  1.25 11.25 13.75
O  3.75 11.25 13.75
O  6.25 11.25 13.75
O  8.75 11.25 13.75
O  11.25 11.25 13.75
O  13.75 11.25 13.75
O  16.25 11.25 13.75
O  18.75 11.25 13.75
O  21.25 11.25 13.75
O  23.75 11.25 13.75
O  1.25 13.75 13.75
O  3.75 13.75 13.75
O  6.25 13.75 13.75
O  8.75 13.75 13.75
O  11.25 13.75 13.75
O  13.75 13.75 13.75
O  16.25 13.75 13.75
O  18.75 13.75 13.75
O  21.25 13.75 13.75
O  23.75 13.75 13.75
O  1.25 16.25 13.75
O  3.75 16.25 13.75
O  6.25 16.25 13.75
O  8.75 16.25 13.75
O  11.25 16.25 13.75
O  13.75 16.25 13.75
O  16.25 16.25 13.75
O  18.75 16.25 13.75
O  21.25 16.25 13.75
O  23.75 16.25 13.75
O  1.25 18.75 13.75
O  3.75 18.75 13.75
O  6.25 18.75 13.75
O  8.75 18.75 13.75
O  11.25 18.75 13.75
O  13.75 18.75 13.75
O  16.25 18.75 13.75
O  18.75 18.75 13.75
O  21.25 18.75 13.75
O  23.75 18.75 13.75
O  1.25 21.25 13.75
O  3.75 21.25 13.75
O  6.25 21.25 13.75
O  8.75 21.25 13.75
O  11.25 21.25 13.75
O  13.75 21.25 13.75
O  16.25 21.25 13.75
O  18.75 21.25 13.75
O  21.25 21.25 13.75
O  23.75 21.25 13.75
O  1.25 23.75 13.75
O  3.75 23.75 13.75
O  6.25 23.75 13.75
O  8.75 23.75 13.75
O  11.25 23.75 13.75
O  13.75 23.75 13.75
O  16.25 23.75 13.75
O  18.75 23.75 13.75
O  21.25 23.75 13.75
O  23.75 23.75 13.75
O  1.25 1.25 16.25
O  3.75 1.25 16.25
O  6.25 1.25 16.25
O  8.75 1.25 16.25
O  11.25 1.25 16.25
O  13.75 1.25 16.25
O  16.25 1.25 16.25
O  18.75 1.25 16.25
O  21.25 1.25 16.25
O  23.75 1.25 16.25
O  1.25 3.75 16.25
O  3.75 3.75 16.25
O  6.25 3.75 16.25
O  8.75 3.75 16.25
O  11.25 3.75 16.25
O  13.75 3.75 16.25
O  16.25 3.75 16.25
O  18.75 3.75 16.25
O  21.25 3.75 16.25
O  23.75 3.75 16.25
O  1.25 6.25 16.25
O  3.75 6.25 16.25
O  6.25 6.25 16.25
O  8.75 6.25 16.25
O  11.25 6.25 16.25
O  13.75 6.25 16.25
O  16.25 6.25 16.25
O  18.75 6.25 16.25
O  21.25 6.25 16.25
O  23.75 6.25 16.25
O  1.25 8.75 16.25
O  3.75 8.75 16.25
O  6.25 8.75 16.25
O  8.75 8.75 16.25
O  11.25 8.75 16.25
O  13.75 8.75 16.25
O  16.25 8.75 16.25
O  18.75 8.75 16.25
O  21.25 8.75 16.25
O  23.75 8.75 16.25
O  1.25 11.25 16.25
O  3.75 11.25 16.25
O  6.25 11.25 16.25
O  8.75 11.25 16.25
O  11.25 11.25 16.25
O  13.75 11.25 16.25
O  16.25 11.25 16.25
O  18.75 11.25 16.25
O  21.25 11.25 16.25
O  23.75 11.25 16.25
O  1.25 13.75 16.25
O  3.75 13.75 16.25
O  6.25 13.75 16.25
O  8.75 13.75 16.25
O  11.25 13.75 16.25
O  13.75 13.75 16.25
O  16.25 13.75 16.25
O  18.75 13.75 16.25
O  21.25 13.75 16.25
O  23.75 13.75 16.25
O  1.25 16.25 16.25
O  3.75 16.25 16.25
O  6.25 16.25 16.25
O  8.75 16.25 16.25
O  11.25 16.25 16.25
O  13.75 16.25 16.25
O  16.25 16.25 16.25
O  18.75 16.25 16.25
O  21.25 16.25 16.25
O  23.75 16.25 16.25
O  1.25 18.75 16.25
O  3.75 18.75 16.25
O  6.25 18.75 16.25
O  8.75 18.75 16.25
O  11.25 18.75 16.25
O  13.75 18.75 16.25
O  16.25 18.75 16.25
O  18.75 18.75 16.25
O  21.25 18.75 16.25
O  23.75 18.75 16.25
O  1.25 21.25 16.25
O  3.75 21.25 16.25
O  6.25 21.25 16.25
O  8.75 21.25 16.25
O  11.25 21.25 16.25
O  13.75 21.25 16.25
O  16.25 21.25 16.25
O  18.75 21.25 16.25
O  21.25 21.25 16.25
O  23.75 21.25 16.25
O  1.25 23.75 16.25
O  3.75 23.75 16.25
O  6.25 23.75 16.25
O  8.75 23.75 16.25
O  11.25 23.75 16.25
O  13.75 23.75 16.25
O  16.25 23.75 16.25
O  18.75 23.75 16.25
O  21.25 23.75 16.25
O  23.75 23.75 16.25
O  1.25 1.25 18.75
O  3.75 1.25 18.75
O  6.25 1.25 18.75
O  8.75 1.25 18.75
O  11.25 1.25 18.75
O  13.75 1.25 18.75
O  16.25 1.25 18.75
O  18.75 1.25 18.75
O  21.25 1.25 18.75
O  23.75 1.25 18.75
O  1.25 3.75 18.75
O  3.75 3.75 18.75
O  6.25 3.75 18.75
O  8.75 3.75 18.75
O  11.25 3.75 18.75
O  13.75 3.75 18.75
O  16.25 3.75 18.75
O  18.75 3.75 18.75
O  21.25 3.75 18.75
O  23.75 3.75 18.75
O  1.25 6.25 18.75
O  3.75 6.25 18.75
O  6.25 6.25 18.75
O  8.75 6.25 18.75
O  11.25 6.25 18.75
O  13.75 6.25 18.75
O  16.25 6.25 18.75
O  18.75 6.25 18.75
O  21.25 6.25 18.75
O  23.75 6.25 18.75
O  1.25 8.75 18.75
O  3.75 8.75 18.75
O  6.25 8.75 18.75
O  8.75 8.75 18.75
O  11.25 8.75 18.75
O  13.75 8.75 18.75
O  16.25 8.75 18.75
O  18.75 8.75 18.75
O  21.25 8.75 18.75
O  23.75 8.75 18.75
O  1.25 11.25 18.75
O  3.75 11.25 18.75
O  6.25 11.25 18.75
O  8.75 11.25 18.75
O  11.25 11.25 18.75
O  13.75 11.25 18.75
O  16.25 11.25 18.75
O  18.75 11.25 18.75
O  21.25 11.25 18.75
O  23.75 11.25 18.75
O  1.25 13.75 18.75
O  3.75 13.75 18.75
O  6.25 13.75 18.75
O  8.75 13.75 18.75
O  11.25 13.75 18.75
O  13.75 13.75 18.75
O  16.25 13.75 18.75
O  18.75 13.75 18.75
O  21.25 13.75 18.75
O  23.75 13.75 18.75
O  1.25 16.25 18.75
O  3.75 16.25 18.75
O  6.25 16.25 18.75
O  8.75 16.25 18.75
O  11.25 16.25 18.75
O  13.75 16.25 18.75
O  16.25 16.25 18.75
O  18.75 16.25 18.75
O  21.25 16.25 18.75
O  23.75 16.25 18.75
O  1.25 18.75 18.75
O  3.75 18.75 18.75
O  6.25 18.75 18.75
O  8.75 18.75 18.75
O  11.25 18.75 18.75
O  13.75 18.75 18.75
O  16.25 18.75 18.75
O  18.75 18.75 18.75
O  21.25 18.75 18.75
O  23.75 18.75 18.75
O  1.25 21.25 18.75
O  3.75 21.25 18.75
O  6.25 21.25 18.75
O  8.75 21.25 18.75
O  11.25 21.25 18.75
O  13.75 21.25 18.75
O  16.25 21.25 18.75
O  18.75 21.25 18.75
O  21.25 21.25 18.75
O  23.75 21.25 18.75
O  1.25 23.75 18.75
O  3.75 23.75 18.75
O  6.25 23.75 18.75
O  8.75 23.75 18.75
O  11.25 23.75 18.75
O  13.75 23.75 18.75
O  16.25 23.75 18.75
O  18.75 23.75 18.75
O  21.25 23.75 18.75
O  23.75 23.75 18.75
O  1.25 1.25 21.25
O  3.75 1.25 21.25
O  6.25 1.25 21.25
O  8.75 1.25 21.25
O  11.25 1.25 21.25
O  13.75 1.25 21.25
O  16.25 1.25 21.25
O  18.75 1.25 21.25
O  21.25 1.25 21.25
O  23.75 1.25 21.25
O  1.25 3.75 21.25
O  3.75 3.75 21.25
O  6.25 3.75 21.25
O  8.75 3.75 21.25
O  11.25 3.75 21.25
O  13.75 3.75 21.25
O  16.25 3.75 21.25
O  18.75 3.75 21.25
O  21.25 3.75 21.25
O  23.75 3.75 21.25
O  1.25 6.25 21.25
O  3.75 6.25 21.25
O  6.25 6.25 21.25
O  8.75 6.25 21.25
O  11.25 6.25 21.25
O  13.75 6.25 21.25
O  16.25 6.25 21.25
O  18.75 6.25 21.25
O  21.25 6.25 21.25
O  23.75 6.25 21.25
O  1.25 8.75 21.25
O  3.75 8.75 21.25
O  6.25 8.75 21.25
O  8.75 8.75 21.25
O  11.25 8.75 21.25
O  13.75 8.75 21.25
O  16.25 8.75 21.25
O  18.75 8.75 21.25
O  21.25 8.75 21.25
O  23.75 8.75 21.25
O  1.25 11.25 21.25
O  3.75 11.25 21.25
O  6.25 11.25 21.25
O  8.75 11.25 21.25
O  11.25 11.25 21.25
O  13.75 11.25 21.25
O  16.25 11.25 21.25
O  18.75 11.25 21.25
O  21.25 11.25 21.25
O  23.75 11.25 21.25
O  1.25 13.75 21.25
O  3.75 13.75 21.25
O  6.25 13.75 21.25
O  8.75 13.75 21.25
O  11.25 13.75 21.25
O  13.75 13.75 21.25
O  16.25 13.75 21.25
O  18.75 13.75 21.25
O  21.25 13.75 21.25
O  23.75 13.75 21.25
O  1.25 16.25 21.25
O  3.75 16.25 21.25
O  6.25 16.25 21.25
O  8.75 16.25 21.25
O  11.25 16.25 21.25
O  13.75 16.25 21.25
O  16.25 16.25 21.25
O  18.75 16.25 21.25
O  21.25 16.25 21.25
O  23.75 16.25 21.25
O  1.25 18.75 21.25
O  3.75 18.75 21.25
O  6.25 18.75 21.25
O  8.75 18.75 21.25
O  11.25 18.75 21.25
O  13.75 18.75 21.25
O  16.25 18.75 21.25
O  18.75 18.75 21.25
O  21.25 18.75 21.25
O  23.75 18.75 21.25
O  1.25 21.25 21.25
O  3.75 21.25 21.25
O  6.25 21.25 21.25
O  8.75 21.25 21.25
O  11.25 21.25 21.25
O  13.75 21.25 21.25
O  16.25 21.25 21.25
O  18.75 21.25 21.25
O  21.25 21.25 21.25
O  23.75 21.25 21.25
O  1.25 23.75 21.25
O  3.75 23.75 21.25
O  6.25 23.75 21.25
O  8.75 23.75 21.25
O  11.25 23.75 21.25
O  13.75 23.75 21.25
O  16.25 23.75 21.25
O  18.75 23.75 21.25
O  21.25 23.75 21.25
O  23.75 23.75 21.25
O  1.25 1.25 23.75
O  3.75 1.25 23.75
O  6.25 1.25 23.75
O  8.75 1.25 23.75
O  11.25 1.25 23.75
O  13.75 1.25 23.75
O  16.25 1.25 23.75
O  18.75 1.25 23.75
O  21.25 1.25 23.75
O  23.75 1.25 23.75
O  1.25 3.75 23.75
O  3.75 3.75 23.75
O  6.25 3.75 23.75
O  8.75 3.75 23.75
O  11.25 3.75 23.75
O  13.75 3.75 23.75
O  16.25 3.75 23.75
O  18.75 3.75 23.75
O  21.25 3.75 23.75
O  23.75 3.75 23.75
O  1.25 6.25 23.75
O  3.75 6.25 23.75
O  6.25 6.25 23.75
O  8.75 6.25 23.75
O  11.25 6.25 23.75
O  13.75 6.25 23.75
O  16.25 6.25 23.75
O  18.75 6.25 23.75
O  21.25 6.25 23.75
O  23.75 6.25 23.75
O  1.25 8.75 23.75
O  3.75 8.75 23.75
O  6.25 8.75 23.75
O  8.75 8.75 23.75
O  11.25 8.75 23.75
O  13.75 8.75 23.75
O  16.25 8.75 23.75
O  18.75 8.75 23.75
O  21.25 8.75 23.75
O  23.75 8.75 23.75
O  1.25 11.25 23.75
O  3.75 11.25 23.75
O  6.25 11.25 23.75
O  8.75 11.25 23.75
O  11.25 11.25 23.75
O  13.75 11.25 23.75
O  16.25 11.25 23.75
O  18.75 11.25 23.75
O  21.25 11.25 23.75
O  23.75 11.25 23.75
O  1.25 13.75 23.75
O  3.75 13.75 23.75
O  6.25 13.75 23.75
O  8.75 13.75 23.75
O  11.25 13.75 23.75
O  13.75 13.75 23.75
O  16.25 13.75 23.75
O  18.75 13.75 23.75
O  21.25 13.75 23.75
O  23.75 13.75 23.75
O  1.25 16.25 23.75
O  3.75 16.25 23.75
O  6.25 16.25 23.75
O  8.75 16.25 23.75
O  11.25 16.25 23.75
O  13.75 16.25 23.75
O  16.25 16.25 23.75
O  18.75 16.25 23.75
O  21.25 16.25 23.75
O  23.75 16.25 23.75
O  1.25 18.75 23.75
O  3.75 18.75 23.75
O  6.25 18.75 23.75
O  8.75 18.75 23.75
O  11.25 18.75 23.75
O  13.75 18.75 23.75
O  16.25 18.75 23.75
O  18.75 18.75 23.75
O  21.25 18.75 23.75
O  23.75 18.75 23.75
O  1.25 21.25 23.75
O  3.75 21.25 23.75
O  6.25 21.25 23.75
O  8.75 21.25 23.75
O  11.25 21.25 23.75
O  13.75 21.25 23.75
O  16.25 21.25 23.75
O  18.75 21.25 23.75
O  21.25 21.25 23.75
O  23.75 21.25 23.75
O  1.25 23.75 23.75
O  3.75 23.75 23.75
O  6.25 23.75 23.75
O  8.75 23.75 23.75
O  11.25 23.75 23.75
O  13.75 23.75 23.75
O  16.25 23.75 23.75
O  18.75 23.75 23.75
O  21.25 23.75 23.75
O  23.75 23.75 23.75
